output/2_TAP2_1/Cargas_MT_SA09_2_TAP2_1.dss
New "Load.MT_8444_M1" bus1="84441.1.2.3.4" phases=3 conn=delta model=2 kv=13.8 kw = 249.1676515917046 pf=0.92 status=variable vmaxpu=1.5 vminpu=0.93 daily="1_SA" 
New "Load.MT_8444_M2" bus1="84441.1.2.3.4" phases=3 conn=delta model=3 kv=13.8 kw = 249.1676515917046 pf=0.92 status=variable vmaxpu=1.5 vminpu=0.93 daily="1_SA"
 
New "Load.MT_8266_M1" bus1="82661.1.2.3.4" phases=3 conn=delta model=2 kv=13.8 kw = 4407.60068874122 pf=0.92 status=variable vmaxpu=1.5 vminpu=0.93 daily="5_SA" 
New "Load.MT_8266_M2" bus1="82661.1.2.3.4" phases=3 conn=delta model=3 kv=13.8 kw = 4407.60068874122 pf=0.92 status=variable vmaxpu=1.5 vminpu=0.93 daily="5_SA"
 
New "Load.MT_8092_M1" bus1="80921.1.2.3.4" phases=3 conn=delta model=2 kv=13.8 kw = 1212.5368246911514 pf=0.92 status=variable vmaxpu=1.5 vminpu=0.93 daily="6_SA" 
New "Load.MT_8092_M2" bus1="80921.1.2.3.4" phases=3 conn=delta model=3 kv=13.8 kw = 1212.5368246911514 pf=0.92 status=variable vmaxpu=1.5 vminpu=0.93 daily="6_SA"
 
New "Load.MT_7769_M1" bus1="77691.1.2.3.4" phases=3 conn=delta model=2 kv=13.8 kw = 442.21646273482713 pf=0.92 status=variable vmaxpu=1.5 vminpu=0.93 daily="1_SA" 
New "Load.MT_7769_M2" bus1="77691.1.2.3.4" phases=3 conn=delta model=3 kv=13.8 kw = 442.21646273482713 pf=0.92 status=variable vmaxpu=1.5 vminpu=0.93 daily="1_SA"
 
New "Load.MT_7632_M1" bus1="76321.1.2.3.4" phases=3 conn=delta model=2 kv=13.8 kw = 24608.98601020905 pf=0.92 status=variable vmaxpu=1.5 vminpu=0.93 daily="6_SA" 
New "Load.MT_7632_M2" bus1="76321.1.2.3.4" phases=3 conn=delta model=3 kv=13.8 kw = 24608.98601020905 pf=0.92 status=variable vmaxpu=1.5 vminpu=0.93 daily="6_SA"
 
New "Load.MT_7595_M1" bus1="75951.1.2.3.4" phases=3 conn=delta model=2 kv=13.8 kw = 5276.76734982188 pf=0.92 status=variable vmaxpu=1.5 vminpu=0.93 daily="3_SA" 
New "Load.MT_7595_M2" bus1="75951.1.2.3.4" phases=3 conn=delta model=3 kv=13.8 kw = 5276.76734982188 pf=0.92 status=variable vmaxpu=1.5 vminpu=0.93 daily="3_SA"
 
New "Load.MT_7322_M1" bus1="73221.1.2.3.4" phases=3 conn=delta model=2 kv=13.8 kw = 1843.61614641682 pf=0.92 status=variable vmaxpu=1.5 vminpu=0.93 daily="1_SA" 
New "Load.MT_7322_M2" bus1="73221.1.2.3.4" phases=3 conn=delta model=3 kv=13.8 kw = 1843.61614641682 pf=0.92 status=variable vmaxpu=1.5 vminpu=0.93 daily="1_SA"
 
New "Load.MT_6803_M1" bus1="68031.1.2.3.4" phases=3 conn=delta model=2 kv=13.8 kw = 6028.959267072075 pf=0.92 status=variable vmaxpu=1.5 vminpu=0.93 daily="1_SA" 
New "Load.MT_6803_M2" bus1="68031.1.2.3.4" phases=3 conn=delta model=3 kv=13.8 kw = 6028.959267072075 pf=0.92 status=variable vmaxpu=1.5 vminpu=0.93 daily="1_SA"
 
New "Load.MT_7250_M1" bus1="72501.1.2.3.4" phases=3 conn=delta model=2 kv=13.8 kw = 28.957321671468378 pf=0.92 status=variable vmaxpu=1.5 vminpu=0.93 daily="1_SA" 
New "Load.MT_7250_M2" bus1="72501.1.2.3.4" phases=3 conn=delta model=3 kv=13.8 kw = 28.957321671468378 pf=0.92 status=variable vmaxpu=1.5 vminpu=0.93 daily="1_SA"
 
New "Load.MT_126_M1" bus1="1261.1.2.3.4" phases=3 conn=delta model=2 kv=13.8 kw = 2786355.044319715 pf=0.92 status=variable vmaxpu=1.5 vminpu=0.93 daily="3_SA" 
New "Load.MT_126_M2" bus1="1261.1.2.3.4" phases=3 conn=delta model=3 kv=13.8 kw = 2786355.044319715 pf=0.92 status=variable vmaxpu=1.5 vminpu=0.93 daily="3_SA"
 
New "Load.MT_1236_M1" bus1="12361.1.2.3.4" phases=3 conn=delta model=2 kv=13.8 kw = 348683.8487845433 pf=0.92 status=variable vmaxpu=1.5 vminpu=0.93 daily="3_SA" 
New "Load.MT_1236_M2" bus1="12361.1.2.3.4" phases=3 conn=delta model=3 kv=13.8 kw = 348683.8487845433 pf=0.92 status=variable vmaxpu=1.5 vminpu=0.93 daily="3_SA"
 
New "Load.MT_1705_M1" bus1="17051.1.2.3.4" phases=3 conn=delta model=2 kv=13.8 kw = 31171.67343723093 pf=0.92 status=variable vmaxpu=1.5 vminpu=0.93 daily="7_SA" 
New "Load.MT_1705_M2" bus1="17051.1.2.3.4" phases=3 conn=delta model=3 kv=13.8 kw = 31171.67343723093 pf=0.92 status=variable vmaxpu=1.5 vminpu=0.93 daily="7_SA"
 
New "Load.MT_461_M1" bus1="4611.1.2.3.4" phases=3 conn=delta model=2 kv=13.8 kw = 584.3093667506371 pf=0.92 status=variable vmaxpu=1.5 vminpu=0.93 daily="1_SA" 
New "Load.MT_461_M2" bus1="4611.1.2.3.4" phases=3 conn=delta model=3 kv=13.8 kw = 584.3093667506371 pf=0.92 status=variable vmaxpu=1.5 vminpu=0.93 daily="1_SA"
 
New "Load.MT_427_M1" bus1="4271.1.2.3.4" phases=3 conn=delta model=2 kv=13.8 kw = 617.5317202961977 pf=0.92 status=variable vmaxpu=1.5 vminpu=0.93 daily="1_SA" 
New "Load.MT_427_M2" bus1="4271.1.2.3.4" phases=3 conn=delta model=3 kv=13.8 kw = 617.5317202961977 pf=0.92 status=variable vmaxpu=1.5 vminpu=0.93 daily="1_SA"
 
